testData/IEEE39/IEEE39bus_multiloads_xfmr4_smallX_slackmvachange_v33_single.raw
0 ,  100.000,   33, 0,1, 60.00
ENGLAND 39 BUS SYSTEM                                       
LOAD LEVEL                                                  
     1,' LBUS01     ',345.0000,1,   1,   1,   1,1.044720,-12.672715,1.100000,0.900000,1.100000,0.900000
     2,' LBUS02     ',345.0000,1,   1,   1,   1,1.040930,-10.398513,1.100000,0.900000,1.100000,0.900000
     3,' LBUS03     ',345.0000,1,   1,   1,   1,1.011540,-13.359618,1.100000,0.900000,1.100000,0.900000
     4,' LBUS04     ',345.0000,1,   1,   1,   1,0.980160,-13.367016,1.100000,0.900000,1.100000,0.900000
     5,' LBUS05     ',345.0000,1,   1,   1,   1,0.980150,-11.644215,1.100000,0.900000,1.100000,0.900000
     6,' LBUS06     ',345.0000,1,   1,   1,   1,0.983840,-10.813012,1.100000,0.900000,1.100000,0.900000
     7,' LBUS07     ',345.0000,1,   1,   1,   1,0.966690,-13.190016,1.100000,0.900000,1.100000,0.900000
     8,' LBUS08     ',345.0000,1,   1,   1,   1,0.964560,-13.760516,1.100000,0.900000,1.100000,0.900000
     9,' LBUS09     ',345.0000,1,   1,   1,   1,1.015180,-13.970616,1.100000,0.900000,1.100000,0.900000
    10,' LBUS10     ',345.0000,1,   1,   1,   1,1.000150,-8.619811,1.100000,0.900000,1.100000,0.900000
    11,' LBUS11     ',345.0000,1,   1,   1,   1,0.993420,-9.368411,1.100000,0.900000,1.100000,0.900000
    12,' LBUS12     ',154.0000,1,   1,   1,   1,0.981080,-9.457711,1.100000,0.900000,1.100000,0.900000
    13,' LBUS13     ',345.0000,1,   1,   1,   1,0.996420,-9.437410,1.100000,0.900000,1.100000,0.900000
    14,' LBUS14     ',345.0000,1,   1,   1,   1,0.992300,-11.378413,1.100000,0.900000,1.100000,0.900000
    15,' LBUS15     ',345.0000,1,   1,   1,   1,1.000600,-12.241215,1.100000,0.900000,1.100000,0.900000
    16,' LBUS16     ',345.0000,1,   1,   1,   1,1.019140,-10.981813,1.100000,0.900000,1.100000,0.900000
    17,' LBUS17     ',345.0000,1,   1,   1,   1,1.015400,-12.399315,1.100000,0.900000,1.100000,0.900000
    18,' LBUS18     ',345.0000,1,   1,   1,   1,1.005840,-13.648816,1.100000,0.900000,1.100000,0.900000
    19,' LBUS19     ',345.0000,1,   1,   1,   1,1.045210,-5.767206,1.100000,0.900000,1.100000,0.900000
    20,' LBUS20     ',345.0000,1,   1,   1,   1,0.988640,-6.771909,1.100000,0.900000,1.100000,0.900000
    21,' LBUS21     ',345.0000,1,   1,   1,   1,1.022870,-8.537210,1.100000,0.900000,1.100000,0.900000
    22,' LBUS22     ',345.0000,1,   1,   1,   1,1.045030,-4.042503,1.100000,0.900000,1.100000,0.900000
    23,' LBUS23     ',345.0000,1,   1,   1,   1,1.039860,-4.242304,1.100000,0.900000,1.100000,0.900000
    24,' LBUS24     ',345.0000,1,   1,   1,   1,1.025800,-10.862413,1.100000,0.900000,1.100000,0.900000
    25,' LBUS25     ',345.0000,1,   1,   1,   1,1.050790,-9.107210,1.100000,0.900000,1.100000,0.900000
    26,' LBUS26     ',345.0000,1,   1,   1,   1,1.042250,-10.447313,1.100000,0.900000,1.100000,0.900000
    27,' LBUS27     ',345.0000,1,   1,   1,   1,1.023900,-12.521515,1.100000,0.900000,1.100000,0.900000
    28,' LBUS28     ',345.0000,1,   1,   1,   1,1.045030,-6.906209,1.100000,0.900000,1.100000,0.900000
    29,' LBUS29     ',345.0000,1,   1,   1,   1,1.046450,-4.131604,1.100000,0.900000,1.100000,0.900000
    30,' GBUS30     ', 22.0000,2,   1,   1,   1,1.047500,-7.960610,1.100000,0.900000,1.100000,0.900000
    31,' GBUS31     ', 22.0000,3,   1,   1,   1,0.982000, 0.000000,1.100000,0.900000,1.100000,0.900000
    32,' GBUS32     ', 22.0000,2,   1,   1,   1,0.983100,-0.486900,1.100000,0.900000,1.100000,0.900000
    33,' GBUS33     ', 22.0000,2,   1,   1,   1,0.997200,-0.539100,1.100000,0.900000,1.100000,0.900000
    34,' GBUS34     ', 22.0000,2,   1,   1,   1,1.012300,-1.576303,1.100000,0.900000,1.100000,0.900000
    35,' GBUS35     ', 22.0000,2,   1,   1,   1,1.049300, 0.942000,1.100000,0.900000,1.100000,0.900000
    36,' GBUS36     ', 22.0000,2,   1,   1,   1,1.063500, 3.643005,1.100000,0.900000,1.100000,0.900000
    37,' GBUS37     ', 22.0000,2,   1,   1,   1,1.027800,-2.288403,1.100000,0.900000,1.100000,0.900000
    38,' GBUS38     ', 22.0000,2,   1,   1,   1,1.026500, 2.945603,1.100000,0.900000,1.100000,0.900000
    39,' GBUS39     ',345.0000,2,   1,   1,   1,1.030000,-14.016116,1.100000,0.900000,1.100000,0.900000
   504,' LBUS504    ',345.0000,1,   1,   1,   1,0.955020,-17.042124,1.100000,0.900000,1.100000,0.900000
   507,' LBUS507    ',345.0000,1,   1,   1,   1,0.951790,-14.937420,1.100000,0.900000,1.100000,0.900000
   508,' LBUS508    ',345.0000,1,   1,   1,   1,0.930180,-17.763922,1.100000,0.900000,1.100000,0.900000
   518,' LBUS518    ',345.0000,1,   1,   1,   1,0.992030,-14.773418,1.100000,0.900000,1.100000,0.900000
0 / END OF BUS DATA, BEGIN LOAD DATA
     3,'1 ',1,   1,   1,   322.000,     2.400,     0.000,     0.000,     0.000,    -0.000,   1,1,0
    12,'1 ',1,   1,   1,     7.500,    88.000,     0.000,     0.000,     0.000,    -0.000,   1,1,0
    15,'1 ',1,   1,   1,   320.000,   153.000,     0.000,     0.000,     0.000,    -0.000,   1,1,0
    16,'1 ',1,   1,   1,   329.400,    32.300,     0.000,     0.000,     0.000,    -0.000,   1,1,0
    18,'1 ',1,   1,   1,   158.000,    30.000,     0.000,     0.000,     0.000,    -0.000,   1,1,0
    20,'1 ',1,   1,   1,   628.000,   103.000,     0.000,     0.000,     0.000,    -0.000,   1,1,0
    21,'1 ',1,   1,   1,   274.000,   115.000,     0.000,     0.000,     0.000,    -0.000,   1,1,0
    23,'1 ',1,   1,   1,   247.500,    84.600,     0.000,     0.000,     0.000,    -0.000,   1,1,0
    24,'1 ',1,   1,   1,   308.600,   -92.200,     0.000,     0.000,     0.000,    -0.000,   1,1,0
    25,'1 ',1,   1,   1,   224.000,    47.200,     0.000,     0.000,     0.000,    -0.000,   1,1,0
    26,'1 ',1,   1,   1,   139.000,    17.000,     0.000,     0.000,     0.000,    -0.000,   1,1,0
    27,'1 ',1,   1,   1,   281.000,    75.500,     0.000,     0.000,     0.000,    -0.000,   1,1,0
    28,'1 ',1,   1,   1,   206.000,    27.600,     0.000,     0.000,     0.000,    -0.000,   1,1,0
    29,'1 ',1,   1,   1,   283.500,    26.900,     0.000,     0.000,     0.000,    -0.000,   1,1,0
    31,'1 ',1,   1,   1,     9.200,     4.600,     0.000,     0.000,     0.000,    -0.000,   1,1,0
    39,'1 ',1,   1,   1,  1104.000,   250.000,     0.000,     0.000,     0.000,    -0.000,   1,1,0
   504,'1 ',1,   1,   1,   500.000,   184.000,     0.000,     0.000,     0.000,    -0.000,   1,1,0
   507,'1 ',1,   1,   1,   233.800,   114.600,     0.000,     0.000,     0.000,    -0.000,   1,1,0
   508,'1 ',1,   1,   1,   522.000,   248.200,     0.000,     0.000,     0.000,    -0.000,   1,1,0
   518,'1 ',1,   1,   1,   163.200,   112.600,     0.000,     0.000,     0.000,    -0.000,   1,1,0
0 / END OF LOAD DATA, BEGIN FIXED SHUNT DATA
0 / END OF FIXED SHUNT DATA, BEGIN GENERATOR DATA
    30,'1 ',   250.000,   190.273,  9900.000, -9999.000,1.047500,     0,   300.000,   0.00000,   0.22400,   0.00000,   0.00000,   1.00000,1,  100.0,  9999.000, -9999.000,   1,1.0000,0,1,0,1,0,1,0,0
    31,'1 ',   686.770,   314.319,  9900.000, -9999.000,0.982000,     0,   612.000,   0.00000,   0.20290,   0.00000,   0.00000,   1.00000,1,  100.0,  9999.000, -9999.000,   1,1.0000,0,1,0,1,0,1,0,0
    32,'1 ',   650.000,   284.022,  9900.000, -9999.000,0.983100,     0,   765.000,   0.00000,   0.28050,   0.00000,   0.00000,   1.00000,1,  100.0,  9999.000, -9999.000,   1,1.0000,0,1,0,1,0,1,0,0
    33,'1 ',   632.000,   140.393,  9900.000, -9999.000,0.997200,     0,   700.000,   0.00000,   0.23300,   0.00000,   0.00000,   1.00000,1,  100.0,  9999.000, -9999.000,   1,1.0000,0,1,0,1,0,1,0,0
    34,'1 ',   508.000,   179.881,  9900.000, -9999.000,1.012300,     0,   613.000,   0.00000,   0.20290,   0.00000,   0.00000,   1.00000,1,  100.0,  9999.000, -9999.000,   1,1.0000,0,1,0,1,0,1,0,0
    35,'1 ',   650.000,   246.629,  9900.000, -9999.000,1.049300,     0,   798.000,   0.00000,   0.31400,   0.00000,   0.00000,   1.00000,1,  100.0,  9999.000, -9999.000,   1,1.0000,0,1,0,1,0,1,0,0
    36,'1 ',   560.000,   120.580,  9900.000, -9999.000,1.063500,     0,   660.000,   0.00000,   0.21500,   0.00000,   0.00000,   1.00000,1,  100.0,  9999.000, -9999.000,   1,1.0000,0,1,0,1,0,1,0,0
    37,'1 ',   540.000,    29.834,  9900.000, -9999.000,1.027800,     0,   660.000,   0.00000,   0.21500,   0.00000,   0.00000,   1.00000,1,  100.0,  9999.000, -9999.000,   1,1.0000,0,1,0,1,0,1,0,0
    38,'1 ',   830.000,    45.276,  9900.000, -9999.000,1.026500,     0,  1151.000,   0.00000,   0.24600,   0.00000,   0.00000,   1.00000,1,  100.0,  9999.000, -9999.000,   1,1.0000,0,1,0,1,0,1,0,0
    39,'1 ',  1000.000,   152.329,  9900.000, -9999.000,1.030000,     0,  2000.000,   0.00000,   0.00500,   0.00000,   0.00000,   1.00000,1,  100.0,  9999.000, -9999.000,   1,1.0000,0,1,0,1,0,1,0,0
0 / END OF GENERATOR DATA, BEGIN BRANCH DATA
     1,     2,'1 ',   0.00350,   0.04110,   0.69870,    0.00,    0.00,    0.00,  0.00000,  0.00000,  0.00000,  0.00000,1,1,   0.00,  1,1.0000
     1,    39,'1 ',   0.00100,   0.02500,   0.75000,    0.00,    0.00,    0.00,  0.00000,  0.00000,  0.00000,  0.00000,1,1,   0.00,  1,1.0000
     2,     3,'1 ',   0.00130,   0.01510,   0.25720,    0.00,    0.00,    0.00,  0.00000,  0.00000,  0.00000,  0.00000,1,1,   0.00,  1,1.0000
     2,    25,'1 ',   0.00700,   0.00860,   0.14600,    0.00,    0.00,    0.00,  0.00000,  0.00000,  0.00000,  0.00000,1,1,   0.00,  1,1.0000
     3,     4,'1 ',   0.00130,   0.02130,   0.22140,    0.00,    0.00,    0.00,  0.00000,  0.00000,  0.00000,  0.00000,1,1,   0.00,  1,1.0000
     3,    18,'1 ',   0.00110,   0.01330,   0.21380,    0.00,    0.00,    0.00,  0.00000,  0.00000,  0.00000,  0.00000,1,1,   0.00,  1,1.0000
     4,     5,'1 ',   0.00080,   0.01280,   0.13420,    0.00,    0.00,    0.00,  0.00000,  0.00000,  0.00000,  0.00000,1,1,   0.00,  1,1.0000
     4,    14,'1 ',   0.00080,   0.01290,   0.13820,    0.00,    0.00,    0.00,  0.00000,  0.00000,  0.00000,  0.00000,1,1,   0.00,  1,1.0000
     5,     6,'1 ',   0.00020,   0.00260,   0.04340,    0.00,    0.00,    0.00,  0.00000,  0.00000,  0.00000,  0.00000,1,1,   0.00,  1,1.0000
     5,     8,'1 ',   0.00080,   0.01120,   0.14760,    0.00,    0.00,    0.00,  0.00000,  0.00000,  0.00000,  0.00000,1,1,   0.00,  1,1.0000
     6,     7,'1 ',   0.00060,   0.00920,   0.11300,    0.00,    0.00,    0.00,  0.00000,  0.00000,  0.00000,  0.00000,1,1,   0.00,  1,1.0000
     6,    11,'1 ',   0.00070,   0.00820,   0.13890,    0.00,    0.00,    0.00,  0.00000,  0.00000,  0.00000,  0.00000,1,1,   0.00,  1,1.0000
     7,     8,'1 ',   0.00040,   0.00460,   0.07800,    0.00,    0.00,    0.00,  0.00000,  0.00000,  0.00000,  0.00000,1,1,   0.00,  1,1.0000
     8,     9,'1 ',   0.00230,   0.03630,   0.38040,    0.00,    0.00,    0.00,  0.00000,  0.00000,  0.00000,  0.00000,1,1,   0.00,  1,1.0000
     9,    39,'1 ',   0.00100,   0.02500,   1.20000,    0.00,    0.00,    0.00,  0.00000,  0.00000,  0.00000,  0.00000,1,1,   0.00,  1,1.0000
    10,    11,'1 ',   0.00040,   0.00430,   0.07290,    0.00,    0.00,    0.00,  0.00000,  0.00000,  0.00000,  0.00000,1,1,   0.00,  1,1.0000
    10,    13,'1 ',   0.00040,   0.00430,   0.07290,    0.00,    0.00,    0.00,  0.00000,  0.00000,  0.00000,  0.00000,1,1,   0.00,  1,1.0000
    13,    14,'1 ',   0.00090,   0.01010,   0.17230,    0.00,    0.00,    0.00,  0.00000,  0.00000,  0.00000,  0.00000,1,1,   0.00,  1,1.0000
    14,    15,'1 ',   0.00180,   0.02170,   0.36600,    0.00,    0.00,    0.00,  0.00000,  0.00000,  0.00000,  0.00000,1,1,   0.00,  1,1.0000
    15,    16,'1 ',   0.00090,   0.00940,   0.17100,    0.00,    0.00,    0.00,  0.00000,  0.00000,  0.00000,  0.00000,1,1,   0.00,  1,1.0000
    16,    17,'1 ',   0.00070,   0.00890,   0.13420,    0.00,    0.00,    0.00,  0.00000,  0.00000,  0.00000,  0.00000,1,1,   0.00,  1,1.0000
    16,    19,'1 ',   0.00160,   0.01950,   0.30400,    0.00,    0.00,    0.00,  0.00000,  0.00000,  0.00000,  0.00000,1,1,   0.00,  1,1.0000
    16,    21,'1 ',   0.00080,   0.01350,   0.25480,    0.00,    0.00,    0.00,  0.00000,  0.00000,  0.00000,  0.00000,1,1,   0.00,  1,1.0000
    16,    24,'1 ',   0.00030,   0.00590,   0.06800,    0.00,    0.00,    0.00,  0.00000,  0.00000,  0.00000,  0.00000,1,1,   0.00,  1,1.0000
    17,    18,'1 ',   0.00070,   0.00820,   0.13190,    0.00,    0.00,    0.00,  0.00000,  0.00000,  0.00000,  0.00000,1,1,   0.00,  1,1.0000
    17,    27,'1 ',   0.00130,   0.01730,   0.32160,    0.00,    0.00,    0.00,  0.00000,  0.00000,  0.00000,  0.00000,1,1,   0.00,  1,1.0000
    21,    22,'1 ',   0.00080,   0.01400,   0.25650,    0.00,    0.00,    0.00,  0.00000,  0.00000,  0.00000,  0.00000,1,1,   0.00,  1,1.0000
    22,    23,'1 ',   0.00060,   0.00960,   0.18460,    0.00,    0.00,    0.00,  0.00000,  0.00000,  0.00000,  0.00000,1,1,   0.00,  1,1.0000
    23,    24,'1 ',   0.00220,   0.03500,   0.36100,    0.00,    0.00,    0.00,  0.00000,  0.00000,  0.00000,  0.00000,1,1,   0.00,  1,1.0000
    25,    26,'1 ',   0.00320,   0.03230,   0.51300,    0.00,    0.00,    0.00,  0.00000,  0.00000,  0.00000,  0.00000,1,1,   0.00,  1,1.0000
    26,    27,'1 ',   0.00140,   0.01470,   0.23960,    0.00,    0.00,    0.00,  0.00000,  0.00000,  0.00000,  0.00000,1,1,   0.00,  1,1.0000
    26,    28,'1 ',   0.00430,   0.04740,   0.78020,    0.00,    0.00,    0.00,  0.00000,  0.00000,  0.00000,  0.00000,1,1,   0.00,  1,1.0000
    26,    29,'1 ',   0.00570,   0.06250,   1.02900,    0.00,    0.00,    0.00,  0.00000,  0.00000,  0.00000,  0.00000,1,1,   0.00,  1,1.0000
    28,    29,'1 ',   0.00140,   0.01510,   0.24900,    0.00,    0.00,    0.00,  0.00000,  0.00000,  0.00000,  0.00000,1,1,   0.00,  1,1.0000
0 / END OF BRANCH DATA, BEGIN TRANSFORMER DATA
     2,    30,    0,'1 ',1,2,1,   0.00000,   0.00000,2,'            ',1,   1,1.0000
   0.00000,   0.01810,  100.00
1.025000,345.000000,0.000000,    0.00,    0.00,    0.00, 0,    -0,1.500000,0.510000,1.500000,0.510000, 159,  0, 0.00, 0.00, 0.00
1.000000,22.000000
     4,   504,    0,'1 ',1,2,1,   0.00000,   0.00000,2,'            ',1,   1,1.0000
   0.00000,   0.00300,  100.00
1.000000,345.000000,0.000000,    0.00,    0.00,    0.00, 1,     6,1.100000,0.900000,1.170000,0.910000,  33,  0, 0.00, 0.00, 0.00
1.000000,345.000000
     6,    31,    0,'1 ',1,2,1,   0.00000,   0.00000,2,'            ',1,   1,1.0000
   0.00000,   0.02500,  100.00
1.070000,345.000000,0.000000,    0.00,    0.00,    0.00, 1,    -6,1.100000,0.900000,1.170000,0.910000,  33,  0, 0.00, 0.00, 0.00
1.000000,22.000000
     7,   507,    0,'1 ',1,2,1,   0.00000,   0.00000,2,'            ',1,   1,1.0000
   0.00000,   0.00300,  100.00
1.000000,345.000000,0.000000,    0.00,    0.00,    0.00, 1,     6,1.100000,0.900000,1.170000,0.910000,  33,  0, 0.00, 0.00, 0.00
1.000000,345.000000
     8,   508,    0,'1 ',1,2,1,   0.00000,   0.00000,2,'            ',1,   1,1.0000
   0.00000,   0.00300,  100.00
1.000000,345.000000,0.000000,    0.00,    0.00,    0.00, 1,     6,1.100000,0.900000,1.170000,0.910000,  33,  0, 0.00, 0.00, 0.00
1.000000,345.000000
    10,    32,    0,'1 ',1,2,1,   0.00000,   0.00000,2,'            ',1,   1,1.0000
   0.00000,   0.02000,  100.00
1.070000,345.000000,0.000000,    0.00,    0.00,    0.00, 0,    -0,1.500000,0.510000,1.500000,0.510000, 159,  0, 0.00, 0.00, 0.00
1.000000,22.000000
    12,    11,    0,'1 ',1,2,1,   0.00000,   0.00000,2,'            ',1,   1,1.0000
   0.00160,   0.04350,  100.00
1.006000,154.000000,0.000000,    0.00,    0.00,    0.00, 0,    -0,1.500000,0.510000,1.500000,0.510000, 159,  0, 0.00, 0.00, 0.00
1.000000,345.000000
    12,    13,    0,'1 ',1,2,1,   0.00000,   0.00000,2,'            ',1,   1,1.0000
   0.00160,   0.04350,  100.00
1.006000,154.000000,0.000000,    0.00,    0.00,    0.00, 0,    -0,1.500000,0.510000,1.500000,0.510000, 159,  0, 0.00, 0.00, 0.00
1.000000,345.000000
    18,   518,    0,'1 ',1,2,1,   0.00000,   0.00000,2,'            ',1,   1,1.0000
   0.00000,   0.00300,  100.00
1.000000,345.000000,0.000000,    0.00,    0.00,    0.00, 1,     6,1.100000,0.900000,1.170000,0.910000,  33,  0, 0.00, 0.00, 0.00
1.000000,345.000000
    19,    20,    0,'1 ',1,2,1,   0.00000,   0.00000,2,'            ',1,   1,1.0000
   0.00070,   0.01380,  100.00
1.060000,345.000000,0.000000,    0.00,    0.00,    0.00, 0,    -0,1.500000,0.510000,1.500000,0.510000, 159,  0, 0.00, 0.00, 0.00
1.000000,345.000000
    19,    33,    0,'1 ',1,2,1,   0.00000,   0.00000,2,'            ',1,   1,1.0000
   0.00070,   0.01420,  100.00
1.070000,345.000000,0.000000,    0.00,    0.00,    0.00, 0,    -0,1.500000,0.510000,1.500000,0.510000, 159,  0, 0.00, 0.00, 0.00
1.000000,22.000000
    20,    34,    0,'1 ',1,2,1,   0.00000,   0.00000,2,'            ',1,   1,1.0000
   0.00090,   0.01800,  100.00
1.009000,345.000000,0.000000,    0.00,    0.00,    0.00, 0,    -0,1.500000,0.510000,1.500000,0.510000, 159,  0, 0.00, 0.00, 0.00
1.000000,22.000000
    22,    35,    0,'1 ',1,2,1,   0.00000,   0.00000,2,'            ',1,   1,1.0000
   0.00000,   0.01430,  100.00
1.025000,345.000000,0.000000,    0.00,    0.00,    0.00, 0,    -0,1.500000,0.510000,1.500000,0.510000, 159,  0, 0.00, 0.00, 0.00
1.000000,22.000000
    23,    36,    0,'1 ',1,2,1,   0.00000,   0.00000,2,'            ',1,   1,1.0000
   0.00050,   0.02720,  100.00
1.000000,345.000000,0.000000,    0.00,    0.00,    0.00, 0,    -0,1.500000,0.510000,1.500000,0.510000, 159,  0, 0.00, 0.00, 0.00
1.000000,22.000000
    25,    37,    0,'1 ',1,2,1,   0.00000,   0.00000,2,'            ',1,   1,1.0000
   0.00060,   0.02320,  100.00
1.025000,345.000000,0.000000,    0.00,    0.00,    0.00, 0,    -0,1.500000,0.510000,1.500000,0.510000, 159,  0, 0.00, 0.00, 0.00
1.000000,22.000000
    29,    38,    0,'1 ',1,2,1,   0.00000,   0.00000,2,'            ',1,   1,1.0000
   0.00080,   0.01560,  100.00
1.025000,345.000000,0.000000,    0.00,    0.00,    0.00, 0,    -0,1.500000,0.510000,1.500000,0.510000, 159,  0, 0.00, 0.00, 0.00
1.000000,22.000000
0 / END OF TRANSFORMER DATA, BEGIN AREA DATA
0 / END OF AREA DATA, BEGIN TWO-TERMINAL DC DATA
0 / END OF TWO-TERMINAL DC DATA, BEGIN VOLTAGE SOURCE DC DATA
0 / END OF VOLTAGE SOURCE DC DATA, BEGIN IMPEDANCE CORRECTIOIN DATA
0 / END OF IMPEDANCE CORRECTION DATA, BEGIN MULTI-TERMINAL DC DATA
0 / END OF MULTI-TERMINAL DC DATA, BEGIN MULTI-SECTION LINE DATA
0 / END OF MULTI-SECTION LINE DATA, BEGIN ZONE DATA
    1,'ZONE_1      '
0 / END OF ZONE DATA, BEGIN INTER-AREA TRANSFER DATA
0 / END OF INTER-AREA TRANSFER DATA, BEGIN OWNER DATA
0 / END OF OWNER DATA, BEGIN FACTS DEVICE DATA
0 / END OF FACTS DEVICE DATA BEGIN SWITCHED SHUNT DATA
0 / END OF SWITCHED SHUNT DATA, BEGIN GNE DATA 
0 / END OF GNE DATA, BEGIN INDUCTION MACHINE DATA 
0 / END OF INDUCTION MACHINE DATA 
Q 
